Circuit: * D:\_my\git\CameraAxe6\CameraAxeFlash\Spice\CameraAxeFlash.asc

Limiting rise time of source v2 to 5e-006
Limiting fall time of source v2 to 5e-006
Direct Newton iteration for .op point succeeded.

Date: Tue Jan 16 15:30:09 2018
Total elapsed time: 22.546 seconds.

tnom = 27
temp = 27
method = modified trap
totiter = 6071044
traniter = 6071010
tranpoints = 1595121
accept = 1128409
rejected = 466712
matrix size = 37
fillins = 5
solver = Normal
Matrix Compiler1: 1.77 KB object code size  0.4/0.2/[0.2]
Matrix Compiler2: off  [0.2]/0.3/0.2

