Circuit: * D:\_my\git\CameraAxe6\CameraAxeFlash\Spice\CameraAxeFlash.asc

Limiting rise time of source v2 to 0.0001
Limiting fall time of source v2 to 0.0001
Direct Newton iteration for .op point succeeded.

Date: Tue Jan 09 14:38:03 2018
Total elapsed time: 25.111 seconds.

tnom = 27
temp = 27
method = modified trap
totiter = 9555413
traniter = 9555397
tranpoints = 2579288
accept = 1818382
rejected = 760906
matrix size = 24
fillins = 1
solver = Normal
Matrix Compiler1: 920 bytes object code size  0.2/0.1/[0.1]
Matrix Compiler2: off  [0.1]/0.2/0.2

