Circuit: * D:\_my\git\CameraAxe6\CameraAxeFlash\Spice\CameraAxeFlash.asc

Limiting rise time of source v2 to 5e-006
Limiting fall time of source v2 to 5e-006
Direct Newton iteration for .op point succeeded.

Date: Mon Jan 15 09:04:05 2018
Total elapsed time: 22.255 seconds.

tnom = 27
temp = 27
method = modified trap
totiter = 6266497
traniter = 6266463
tranpoints = 1646064
accept = 1146554
rejected = 499510
matrix size = 37
fillins = 5
solver = Normal
Matrix Compiler1: 1.77 KB object code size  0.3/0.2/[0.1]
Matrix Compiler2: off  [0.2]/0.3/0.3

