Circuit: * D:\_my\git\CameraAxe6\CameraAxeFlash\Spice\CameraAxeFlash.asc

Limiting rise time of source v2 to 0.0001
Limiting fall time of source v2 to 0.0001
Direct Newton iteration for .op point succeeded.

Date: Tue Jan 09 16:20:45 2018
Total elapsed time: 23.680 seconds.

tnom = 27
temp = 27
method = modified trap
totiter = 9372308
traniter = 9372292
tranpoints = 2513988
accept = 1774405
rejected = 739583
matrix size = 25
fillins = 1
solver = Normal
Matrix Compiler1: 970 bytes object code size  0.2/0.1/[0.1]
Matrix Compiler2: 1.56 KB object code size  0.1/0.2/[0.1]

